// Generated for: spectre
// Generated on: May 24 02:28:09 2023
// Design library name: And_Sram
// Design cell name: new_sram_and_array_parallel_take9
// Design view name: schematic
simulator lang=spectre
global 0
parameters init_cond vtail vdd_level_input bl_w6 bl_w2 bl_w1 bl_w7 bl_w0 \
    bl_w4 bl_w5 X7 X6 X5 X4 X3 X2 X1 X0 vdd bl_w3 precharge_m noise_var k1
include "/afs/iitd.ac.in/service/tools/public/asiclib/tsmc/L65/process/tsmc65/tsmcN65/../models/spectre/toplevel.scs" section=tt_lib

// Library name: And_Sram
// Cell name: sram_and
// View name: schematic
subckt sram_and VDD VSS input1 input2 out pmos_clk pmos_clk2
    M4 (out out1 VSS VSS) nch_mac l=180.0n w=600n multi=1 nf=1 sd=120.0n \
        ad=5.7e-14 as=5.7e-14 pd=1.39u ps=1.39u nrd=2.576626 nrs=2.576626 \
        sa=75n sb=75n sa1=75n sa2=75n sa3=75n sa4=75n sb1=75n sb2=75n \
        sb3=75n spa=100n spa1=100n spa2=100n spa3=100n sap=91.9776n \
        sapb=114.444n spba=115.715168n spba1=117.042727n dfm_flag=0 \
        spmt=1.11111e+15 spomt=0 spomt1=1.11111e+60 spmb=1.11111e+15 \
        spomb=0 spomb1=1.11111e+60
    M2 (net1 input2 VSS VSS) nch_mac l=30n w=200n multi=1 nf=2 sd=100n \
        ad=1e-14 as=1.5e-14 pd=400n ps=700n sa=75n sb=75n sa1=75n sa2=75n \
        sa3=75n sa4=75n sb1=75n sb2=75n sb3=75n spa=100n spa1=100n \
        spa2=100n spa3=100n sap=91.9776n sapb=114.444n spba=115.715168n \
        spba1=117.042727n dfm_flag=0 spmt=1.11111e+15 spomt=0 \
        spomt1=1.11111e+60 spmb=1.11111e+15 spomb=0 spomb1=1.11111e+60
    M1 (out1 input1 net1 net1) nch_mac l=30n w=200n multi=1 nf=2 sd=100n \
        ad=1e-14 as=1.5e-14 pd=400n ps=700n sa=75n sb=75n sa1=75n sa2=75n \
        sa3=75n sa4=75n sb1=75n sb2=75n sb3=75n spa=100n spa1=100n \
        spa2=100n spa3=100n sap=91.9776n sapb=114.444n spba=115.715168n \
        spba1=117.042727n dfm_flag=0 spmt=1.11111e+15 spomt=0 \
        spomt1=1.11111e+60 spmb=1.11111e+15 spomb=0 spomb1=1.11111e+60
    M6 (net2 out1 VDD VDD) pch_mac l=180.0n w=600n multi=2 nf=1 sd=120.0n \
        ad=5.7e-14 as=5.7e-14 pd=1.39u ps=1.39u sa=75n sb=75n sa1=75n \
        sa2=75n sa3=75n sa4=75n sb1=75n sb2=75n sb3=75n spa=100n spa1=100n \
        spa2=100n spa3=100n sap=91.9776n sapb=114.444n spba=115.715168n \
        spba1=117.042727n dfm_flag=0 spmt=1.11111e+15 spomt=0 \
        spomt1=1.11111e+60 spmb=1.11111e+15 spomb=0 spomb1=1.11111e+60
    M5 (out1 pmos_clk2 VDD VDD) pch_mac l=30n w=500n multi=1 nf=5 sd=100n \
        ad=2.75e-14 as=2.75e-14 pd=1.15u ps=1.15u sa=75n sb=75n sa1=75n \
        sa2=75n sa3=75n sa4=75n sb1=75n sb2=75n sb3=75n spa=100n spa1=100n \
        spa2=100n spa3=100n sap=91.9776n sapb=114.444n spba=115.715168n \
        spba1=117.042727n dfm_flag=0 spmt=1.11111e+15 spomt=0 \
        spomt1=1.11111e+60 spmb=1.11111e+15 spomb=0 spomb1=1.11111e+60
    M3 (out out1 net2 net2) pch_mac l=180.0n w=600n multi=2 nf=1 sd=120.0n \
        ad=5.7e-14 as=5.7e-14 pd=1.39u ps=1.39u sa=75n sb=75n sa1=75n \
        sa2=75n sa3=75n sa4=75n sb1=75n sb2=75n sb3=75n spa=100n spa1=100n \
        spa2=100n spa3=100n sap=91.9776n sapb=114.444n spba=115.715168n \
        spba1=117.042727n dfm_flag=0 spmt=1.11111e+15 spomt=0 \
        spomt1=1.11111e+60 spmb=1.11111e+15 spomb=0 spomb1=1.11111e+60
    M0 (out1 pmos_clk VDD VDD) pch_mac l=30n w=500n multi=1 nf=5 sd=100n \
        ad=2.75e-14 as=2.75e-14 pd=1.15u ps=1.15u sa=75n sb=75n sa1=75n \
        sa2=75n sa3=75n sa4=75n sb1=75n sb2=75n sb3=75n spa=100n spa1=100n \
        spa2=100n spa3=100n sap=91.9776n sapb=114.444n spba=115.715168n \
        spba1=117.042727n dfm_flag=0 spmt=1.11111e+15 spomt=0 \
        spomt1=1.11111e+60 spmb=1.11111e+15 spomb=0 spomb1=1.11111e+60
ends sram_and
// End of subcircuit definition.

// Library name: And_Sram
// Cell name: SRAM_28nm
// View name: schematic
subckt SRAM_28nm BL BLB Q QB VDD VSS WL
    M1 (Q QB VDD VDD) pch_mac l=30n w=100n multi=1 nf=1 sd=100n ad=7.5e-15 \
        as=7.5e-15 pd=350n ps=350n nrd=1.466664 nrs=1.466664 sa=75n sb=75n \
        sa1=75n sa2=75n sa3=75n sa4=75n sb1=75n sb2=75n sb3=75n spa=100n \
        spa1=100n spa2=100n spa3=100n sap=91.9776n sapb=114.444n \
        spba=115.715168n spba1=117.042727n dfm_flag=0 spmt=1.11111e+15 \
        spomt=0 spomt1=1.11111e+60 spmb=1.11111e+15 spomb=0 \
        spomb1=1.11111e+60
    M0 (QB Q VDD VDD) pch_mac l=30n w=100n multi=1 nf=1 sd=100n ad=7.5e-15 \
        as=7.5e-15 pd=350n ps=350n nrd=1.466664 nrs=1.466664 sa=75n sb=75n \
        sa1=75n sa2=75n sa3=75n sa4=75n sb1=75n sb2=75n sb3=75n spa=100n \
        spa1=100n spa2=100n spa3=100n sap=91.9776n sapb=114.444n \
        spba=115.715168n spba1=117.042727n dfm_flag=0 spmt=1.11111e+15 \
        spomt=0 spomt1=1.11111e+60 spmb=1.11111e+15 spomb=0 \
        spomb1=1.11111e+60
    M5 (Q WL BL BL) nch_mac l=30n w=100n multi=2 nf=1 sd=100n ad=7.5e-15 \
        as=7.5e-15 pd=350.0n ps=350.0n nrd=2.576626 nrs=2.576626 sa=75n \
        sb=75n sa1=75n sa2=75n sa3=75n sa4=75n sb1=75n sb2=75n sb3=75n \
        spa=100n spa1=100n spa2=100n spa3=100n sap=91.9776n sapb=114.444n \
        spba=115.715168n spba1=117.042727n dfm_flag=0 spmt=1.11111e+15 \
        spomt=0 spomt1=1.11111e+60 spmb=1.11111e+15 spomb=0 \
        spomb1=1.11111e+60
    M3 (Q QB VSS VSS) nch_mac l=30n w=400n multi=1 nf=4 sd=100n ad=2e-14 \
        as=2.5e-14 pd=800n ps=1.1u nrd=2.576626 nrs=2.576626 sa=75n sb=75n \
        sa1=75n sa2=75n sa3=75n sa4=75n sb1=75n sb2=75n sb3=75n spa=100n \
        spa1=100n spa2=100n spa3=100n sap=91.9776n sapb=114.444n \
        spba=115.715168n spba1=117.042727n dfm_flag=0 spmt=1.11111e+15 \
        spomt=0 spomt1=1.11111e+60 spmb=1.11111e+15 spomb=0 \
        spomb1=1.11111e+60
    M4 (QB WL BLB BLB) nch_mac l=30n w=100n multi=2 nf=1 sd=100n \
        ad=7.5e-15 as=7.5e-15 pd=350.0n ps=350.0n nrd=2.576626 \
        nrs=2.576626 sa=75n sb=75n sa1=75n sa2=75n sa3=75n sa4=75n sb1=75n \
        sb2=75n sb3=75n spa=100n spa1=100n spa2=100n spa3=100n \
        sap=91.9776n sapb=114.444n spba=115.715168n spba1=117.042727n \
        dfm_flag=0 spmt=1.11111e+15 spomt=0 spomt1=1.11111e+60 \
        spmb=1.11111e+15 spomb=0 spomb1=1.11111e+60
    M2 (QB Q VSS VSS) nch_mac l=30n w=400n multi=1 nf=4 sd=100n ad=2e-14 \
        as=2.5e-14 pd=800n ps=1.1u nrd=2.576626 nrs=2.576626 sa=75n sb=75n \
        sa1=75n sa2=75n sa3=75n sa4=75n sb1=75n sb2=75n sb3=75n spa=100n \
        spa1=100n spa2=100n spa3=100n sap=91.9776n sapb=114.444n \
        spba=115.715168n spba1=117.042727n dfm_flag=0 spmt=1.11111e+15 \
        spomt=0 spomt1=1.11111e+60 spmb=1.11111e+15 spomb=0 \
        spomb1=1.11111e+60
ends SRAM_28nm
// End of subcircuit definition.

// Library name: And_Sram
// Cell name: And_bitcell
// View name: schematic
subckt And_bitcell BL BLB VDD VSS WL _net0 out pmos_clk
    I0 (VDD VSS Q _net0 out pmos_clk _net0) sram_and
    I1 (BL BLB Q QB VDD VSS WL) SRAM_28nm
ends And_bitcell
// End of subcircuit definition.

// Library name: And_Sram
// Cell name: switch
// View name: schematic
subckt switch control control_bar in out
parameters mul_switch=10
    M9 (intermediate control in in) nch_mac l=30n w=100n multi=mul_switch \
        nf=1 sd=100n ad=7.5e-15 as=7.5e-15 pd=350.0n ps=350.0n sa=75n \
        sb=75n sa1=75n sa2=75n sa3=75n sa4=75n sb1=75n sb2=75n sb3=75n \
        spa=100n spa1=100n spa2=100n spa3=100n sap=91.9776n sapb=114.444n \
        spba=115.715168n spba1=117.042727n dfm_flag=0 spmt=1.11111e+15 \
        spomt=0 spomt1=1.11111e+60 spmb=1.11111e+15 spomb=0 \
        spomb1=1.11111e+60
    M10 (out control intermediate intermediate) nch_mac l=30n w=100n \
        multi=mul_switch nf=1 sd=100n ad=7.5e-15 as=7.5e-15 pd=350.0n \
        ps=350.0n sa=75n sb=75n sa1=75n sa2=75n sa3=75n sa4=75n sb1=75n \
        sb2=75n sb3=75n spa=100n spa1=100n spa2=100n spa3=100n \
        sap=91.9776n sapb=114.444n spba=115.715168n spba1=117.042727n \
        dfm_flag=0 spmt=1.11111e+15 spomt=0 spomt1=1.11111e+60 \
        spmb=1.11111e+15 spomb=0 spomb1=1.11111e+60
    M0 (in control_bar net3 net3) pch_mac l=30n w=100n multi=mul_switch \
        nf=1 sd=100n ad=7.5e-15 as=7.5e-15 pd=350.0n ps=350.0n sa=75n \
        sb=75n sa1=75n sa2=75n sa3=75n sa4=75n sb1=75n sb2=75n sb3=75n \
        spa=100n spa1=100n spa2=100n spa3=100n sap=91.9776n sapb=114.444n \
        spba=115.715168n spba1=117.042727n dfm_flag=0 spmt=1.11111e+15 \
        spomt=0 spomt1=1.11111e+60 spmb=1.11111e+15 spomb=0 \
        spomb1=1.11111e+60
    M4 (net3 control_bar out out) pch_mac l=30n w=100n multi=mul_switch \
        nf=1 sd=100n ad=7.5e-15 as=7.5e-15 pd=350.0n ps=350.0n sa=75n \
        sb=75n sa1=75n sa2=75n sa3=75n sa4=75n sb1=75n sb2=75n sb3=75n \
        spa=100n spa1=100n spa2=100n spa3=100n sap=91.9776n sapb=114.444n \
        spba=115.715168n spba1=117.042727n dfm_flag=0 spmt=1.11111e+15 \
        spomt=0 spomt1=1.11111e+60 spmb=1.11111e+15 spomb=0 \
        spomb1=1.11111e+60
    C4 (intermediate 0) capacitor c=1f
    C3 (net3 0) capacitor c=1f
ends switch
// End of subcircuit definition.

// Library name: And_Sram
// Cell name: inverter
// View name: schematic
subckt inverter IN OUT VDD VSS
    M0 (OUT IN VSS VSS) nch_mac l=30n w=100n multi=1 nf=1 sd=100n \
        ad=7.5e-15 as=7.5e-15 pd=350n ps=350n nrd=2.576626 nrs=2.576626 \
        sa=75n sb=75n sa1=75n sa2=75n sa3=75n sa4=75n sb1=75n sb2=75n \
        sb3=75n spa=100n spa1=100n spa2=100n spa3=100n sap=91.9776n \
        sapb=114.444n spba=115.715168n spba1=117.042727n dfm_flag=0 \
        spmt=1.11111e+15 spomt=0 spomt1=1.11111e+60 spmb=1.11111e+15 \
        spomb=0 spomb1=1.11111e+60
    M1 (OUT IN VDD VDD) pch_mac l=30n w=100n multi=2 nf=1 sd=100n \
        ad=7.5e-15 as=7.5e-15 pd=350.0n ps=350.0n nrd=1.466664 \
        nrs=1.466664 sa=75n sb=75n sa1=75n sa2=75n sa3=75n sa4=75n sb1=75n \
        sb2=75n sb3=75n spa=100n spa1=100n spa2=100n spa3=100n \
        sap=91.9776n sapb=114.444n spba=115.715168n spba1=117.042727n \
        dfm_flag=0 spmt=1.11111e+15 spomt=0 spomt1=1.11111e+60 \
        spmb=1.11111e+15 spomb=0 spomb1=1.11111e+60
ends inverter
// End of subcircuit definition.

// Library name: And_Sram
// Cell name: strong_arm_latch3
// View name: schematic
subckt strong_arm_latch3 clk gnd vx_final vdd vminus vplus
    I7 (net5 vy vdd gnd) inverter
    I9 (net4 vx vdd gnd) inverter
    M6 (vy_final vy gnd gnd) nch_mac l=30n w=100n multi=1 nf=1 sd=100n \
        ad=7.5e-15 as=7.5e-15 pd=350n ps=350n nrd=2.576626 nrs=2.576626 \
        sa=75n sb=75n sa1=75n sa2=75n sa3=75n sa4=75n sb1=75n sb2=75n \
        sb3=75n spa=100n spa1=100n spa2=100n spa3=100n sap=91.9776n \
        sapb=114.444n spba=115.715168n spba1=117.042727n dfm_flag=0 \
        spmt=1.11111e+15 spomt=0 spomt1=1.11111e+60 spmb=1.11111e+15 \
        spomb=0 spomb1=1.11111e+60
    M3 (vx_final vx gnd gnd) nch_mac l=30n w=100n multi=1 nf=1 sd=100n \
        ad=7.5e-15 as=7.5e-15 pd=350n ps=350n nrd=2.576626 nrs=2.576626 \
        sa=75n sb=75n sa1=75n sa2=75n sa3=75n sa4=75n sb1=75n sb2=75n \
        sb3=75n spa=100n spa1=100n spa2=100n spa3=100n sap=91.9776n \
        sapb=114.444n spba=115.715168n spba1=117.042727n dfm_flag=0 \
        spmt=1.11111e+15 spomt=0 spomt1=1.11111e+60 spmb=1.11111e+15 \
        spomb=0 spomb1=1.11111e+60
    M1 (net4 net5 net7 gnd) nch_mac l=30n w=100n multi=1 nf=1 sd=100n \
        ad=7.5e-15 as=7.5e-15 pd=350.0n ps=350.0n nrd=0.142857 \
        nrs=0.142857 sa=175.00n sb=175.00n sa1=75n sa2=75n sa3=75n sa4=75n \
        sb1=75n sb2=75n sb3=75n spa=100n spa1=100n spa2=100n spa3=100n \
        sap=91.9776n sapb=114.444n spba=115.715168n spba1=117.042727n \
        dfm_flag=0 spmt=1.11111e+15 spomt=0 spomt1=1.11111e+60 \
        spmb=1.11111e+15 spomb=0 spomb1=1.11111e+60
    M0 (net5 net4 net6 gnd) nch_mac l=30n w=100n multi=1 nf=1 sd=100n \
        ad=7.5e-15 as=7.5e-15 pd=350.0n ps=350.0n nrd=0.142857 \
        nrs=0.142857 sa=175.00n sb=175.00n sa1=75n sa2=75n sa3=75n sa4=75n \
        sb1=75n sb2=75n sb3=75n spa=100n spa1=100n spa2=100n spa3=100n \
        sap=91.9776n sapb=114.444n spba=115.715168n spba1=117.042727n \
        dfm_flag=0 spmt=1.11111e+15 spomt=0 spomt1=1.11111e+60 \
        spmb=1.11111e+15 spomb=0 spomb1=1.11111e+60
    M8 (net7 vminus net1 gnd) nch_mac l=30n w=100n multi=1 nf=1 sd=100n \
        ad=7.5e-15 as=7.5e-15 pd=350.0n ps=350.0n nrd=0.142857 \
        nrs=0.142857 sa=175.00n sb=175.00n sa1=75n sa2=75n sa3=75n sa4=75n \
        sb1=75n sb2=75n sb3=75n spa=100n spa1=100n spa2=100n spa3=100n \
        sap=91.9776n sapb=114.444n spba=115.715168n spba1=117.042727n \
        dfm_flag=0 spmt=1.11111e+15 spomt=0 spomt1=1.11111e+60 \
        spmb=1.11111e+15 spomb=0 spomb1=1.11111e+60
    M7 (net1 clk gnd gnd) nch_mac l=30n w=100n multi=1 nf=1 sd=100n \
        ad=7.5e-15 as=7.5e-15 pd=350.0n ps=350.0n nrd=0.142857 \
        nrs=0.142857 sa=175.00n sb=175.00n sa1=75n sa2=75n sa3=75n sa4=75n \
        sb1=75n sb2=75n sb3=75n spa=100n spa1=100n spa2=100n spa3=100n \
        sap=91.9776n sapb=114.444n spba=115.715168n spba1=117.042727n \
        dfm_flag=0 spmt=1.11111e+15 spomt=0 spomt1=1.11111e+60 \
        spmb=1.11111e+15 spomb=0 spomb1=1.11111e+60
    M17 (net6 vplus net1 gnd) nch_mac l=30n w=100n multi=1 nf=1 sd=100n \
        ad=7.5e-15 as=7.5e-15 pd=350.0n ps=350.0n nrd=0.142857 \
        nrs=0.142857 sa=175.00n sb=175.00n sa1=75n sa2=75n sa3=75n sa4=75n \
        sb1=75n sb2=75n sb3=75n spa=100n spa1=100n spa2=100n spa3=100n \
        sap=91.9776n sapb=114.444n spba=115.715168n spba1=117.042727n \
        dfm_flag=0 spmt=1.11111e+15 spomt=0 spomt1=1.11111e+60 \
        spmb=1.11111e+15 spomb=0 spomb1=1.11111e+60
    M15 (net1 vminus net6 vdd) pch_mac l=30n w=100n multi=2 nf=1 sd=100n \
        ad=7.5e-15 as=7.5e-15 pd=350.0n ps=350.0n nrd=0.1 nrs=0.1 \
        sa=175.00n sb=175.00n sa1=75n sa2=75n sa3=75n sa4=75n sb1=75n \
        sb2=75n sb3=75n spa=100n spa1=100n spa2=100n spa3=100n \
        sap=91.9776n sapb=114.444n spba=115.715168n spba1=117.042727n \
        dfm_flag=0 spmt=1.11111e+15 spomt=0 spomt1=1.11111e+60 \
        spmb=1.11111e+15 spomb=0 spomb1=1.11111e+60
    M12 (net6 clk vdd vdd) pch_mac l=30n w=100n multi=1 nf=1 sd=100n \
        ad=7.5e-15 as=7.5e-15 pd=350.0n ps=350.0n nrd=0.1 nrs=0.1 \
        sa=175.00n sb=175.00n sa1=75n sa2=75n sa3=75n sa4=75n sb1=75n \
        sb2=75n sb3=75n spa=100n spa1=100n spa2=100n spa3=100n \
        sap=91.9776n sapb=114.444n spba=115.715168n spba1=117.042727n \
        dfm_flag=0 spmt=1.11111e+15 spomt=0 spomt1=1.11111e+60 \
        spmb=1.11111e+15 spomb=0 spomb1=1.11111e+60
    M11 (net5 clk vdd vdd) pch_mac l=30n w=100n multi=1 nf=1 sd=100n \
        ad=7.5e-15 as=7.5e-15 pd=350.0n ps=350.0n nrd=0.1 nrs=0.1 \
        sa=175.00n sb=175.00n sa1=75n sa2=75n sa3=75n sa4=75n sb1=75n \
        sb2=75n sb3=75n spa=100n spa1=100n spa2=100n spa3=100n \
        sap=91.9776n sapb=114.444n spba=115.715168n spba1=117.042727n \
        dfm_flag=0 spmt=1.11111e+15 spomt=0 spomt1=1.11111e+60 \
        spmb=1.11111e+15 spomb=0 spomb1=1.11111e+60
    M4 (net4 clk vdd vdd) pch_mac l=30n w=100n multi=1 nf=1 sd=100n \
        ad=7.5e-15 as=7.5e-15 pd=350.0n ps=350.0n nrd=0.1 nrs=0.1 \
        sa=175.00n sb=175.00n sa1=75n sa2=75n sa3=75n sa4=75n sb1=75n \
        sb2=75n sb3=75n spa=100n spa1=100n spa2=100n spa3=100n \
        sap=91.9776n sapb=114.444n spba=115.715168n spba1=117.042727n \
        dfm_flag=0 spmt=1.11111e+15 spomt=0 spomt1=1.11111e+60 \
        spmb=1.11111e+15 spomb=0 spomb1=1.11111e+60
    M10 (net5 net4 vdd vdd) pch_mac l=30n w=100n multi=2 nf=1 sd=100n \
        ad=7.5e-15 as=7.5e-15 pd=350.0n ps=350.0n nrd=0.1 nrs=0.1 \
        sa=175.00n sb=175.00n sa1=75n sa2=75n sa3=75n sa4=75n sb1=75n \
        sb2=75n sb3=75n spa=100n spa1=100n spa2=100n spa3=100n \
        sap=91.9776n sapb=114.444n spba=115.715168n spba1=117.042727n \
        dfm_flag=0 spmt=1.11111e+15 spomt=0 spomt1=1.11111e+60 \
        spmb=1.11111e+15 spomb=0 spomb1=1.11111e+60
    M5 (net4 net5 vdd vdd) pch_mac l=30n w=100n multi=2 nf=1 sd=100n \
        ad=7.5e-15 as=7.5e-15 pd=350.0n ps=350.0n nrd=0.1 nrs=0.1 \
        sa=175.00n sb=175.00n sa1=75n sa2=75n sa3=75n sa4=75n sb1=75n \
        sb2=75n sb3=75n spa=100n spa1=100n spa2=100n spa3=100n \
        sap=91.9776n sapb=114.444n spba=115.715168n spba1=117.042727n \
        dfm_flag=0 spmt=1.11111e+15 spomt=0 spomt1=1.11111e+60 \
        spmb=1.11111e+15 spomb=0 spomb1=1.11111e+60
    r (net7 clk vdd vdd) pch_mac l=30n w=100n multi=1 nf=1 sd=100n \
        ad=7.5e-15 as=7.5e-15 pd=350.0n ps=350.0n nrd=0.1 nrs=0.1 \
        sa=175.00n sb=175.00n sa1=75n sa2=75n sa3=75n sa4=75n sb1=75n \
        sb2=75n sb3=75n spa=100n spa1=100n spa2=100n spa3=100n \
        sap=91.9776n sapb=114.444n spba=115.715168n spba1=117.042727n \
        dfm_flag=0 spmt=1.11111e+15 spomt=0 spomt1=1.11111e+60 \
        spmb=1.11111e+15 spomb=0 spomb1=1.11111e+60
    M16 (net1 vplus net7 vdd) pch_mac l=30n w=100n multi=2 nf=1 sd=100n \
        ad=7.5e-15 as=7.5e-15 pd=350.0n ps=350.0n nrd=0.1 nrs=0.1 \
        sa=175.00n sb=175.00n sa1=75n sa2=75n sa3=75n sa4=75n sb1=75n \
        sb2=75n sb3=75n spa=100n spa1=100n spa2=100n spa3=100n \
        sap=91.9776n sapb=114.444n spba=115.715168n spba1=117.042727n \
        dfm_flag=0 spmt=1.11111e+15 spomt=0 spomt1=1.11111e+60 \
        spmb=1.11111e+15 spomb=0 spomb1=1.11111e+60
    M13 (vx_final vy_final vdd vdd) pch_mac l=30n w=100n multi=1 nf=1 \
        sd=100n ad=7.5e-15 as=7.5e-15 pd=350n ps=350n nrd=1.466664 \
        nrs=1.466664 sa=75n sb=75n sa1=75n sa2=75n sa3=75n sa4=75n sb1=75n \
        sb2=75n sb3=75n spa=100n spa1=100n spa2=100n spa3=100n \
        sap=91.9776n sapb=114.444n spba=115.715168n spba1=117.042727n \
        dfm_flag=0 spmt=1.11111e+15 spomt=0 spomt1=1.11111e+60 \
        spmb=1.11111e+15 spomb=0 spomb1=1.11111e+60
    M14 (vy_final vx_final vdd vdd) pch_mac l=30n w=100n multi=1 nf=1 \
        sd=100n ad=7.5e-15 as=7.5e-15 pd=350n ps=350n nrd=1.466664 \
        nrs=1.466664 sa=75n sb=75n sa1=75n sa2=75n sa3=75n sa4=75n sb1=75n \
        sb2=75n sb3=75n spa=100n spa1=100n spa2=100n spa3=100n \
        sap=91.9776n sapb=114.444n spba=115.715168n spba1=117.042727n \
        dfm_flag=0 spmt=1.11111e+15 spomt=0 spomt1=1.11111e+60 \
        spmb=1.11111e+15 spomb=0 spomb1=1.11111e+60
ends strong_arm_latch3
// End of subcircuit definition.

// Library name: SAR_adc8_control
// Cell name: Control_logic
// View name: schematic
subckt Control_logic clk Comparator_out reset control_input \
        control_bar_input control_8_plus control_bar_8_plus control_7_plus \
        control_bar_7_plus control_6_plus control_bar_6_plus \
        control_5_plus control_bar_5_plus control_4_plus \
        control_bar_4_plus control_3_plus control_bar_3_plus \
        control_2_plus control_bar_2_plus control_1_plus \
        control_bar_1_plus SAR_out\<7\> SAR_out\<6\> SAR_out\<5\> \
        SAR_out\<4\> SAR_out\<3\> SAR_out\<2\> SAR_out\<1\> SAR_out\<0\> \
        control_8_minus control_bar_8_minus control_7_minus \
        control_bar_7_minus control_6_minus control_bar_6_minus \
        control_5_minus control_bar_5_minus control_4_minus \
        control_bar_4_minus control_3_minus control_bar_3_minus \
        control_2_minus control_bar_2_minus VDD VSS
    I90 (net24 net23 VDD VSS) INVD0BWP30P140LVT
    I89 (n_123 net24 VDD VSS) INVD0BWP30P140LVT
    g1876 (n_54 n_55 VDD VSS) INVD0BWP30P140LVT
    g1894 (n_89 n_46 VDD VSS) INVD0BWP30P140LVT
    I88 (net20 net21 VDD VSS) CKBD1BWP30P140LVT
    I85 (net18 net19 VDD VSS) CKBD1BWP30P140LVT
    I79 (n_16 net16 VDD VSS) CKBD1BWP30P140LVT
    I78 (net16 net13 VDD VSS) CKBD1BWP30P140LVT
    I80 (n_89 net15 VDD VSS) CKBD1BWP30P140LVT
    I73 (net105 net108 VDD VSS) CKBD1BWP30P140LVT
    I72 (n_89 net105 VDD VSS) CKBD1BWP30P140LVT
    I71 (net10 net1 VDD VSS) CKBD1BWP30P140LVT
    I70 (n_89 net10 VDD VSS) CKBD1BWP30P140LVT
    I69 (n_89 net6 VDD VSS) CKBD1BWP30P140LVT
    I67 (net5 net9 VDD VSS) CKBD1BWP30P140LVT
    I68 (net6 net5 VDD VSS) CKBD1BWP30P140LVT
    I81 (n_34 net4 VDD VSS) CKBD1BWP30P140LVT
    I62 (net2 net3 VDD VSS) CKBD1BWP30P140LVT
    I61 (net15 net2 VDD VSS) CKBD1BWP30P140LVT
    I60 (n_89 net69 VDD VSS) CKBD1BWP30P140LVT
    I59 (net69 net65 VDD VSS) CKBD1BWP30P140LVT
    I58 (net58 net59 VDD VSS) CKBD1BWP30P140LVT
    I57 (n_89 net58 VDD VSS) CKBD1BWP30P140LVT
    I56 (n_89 net51 VDD VSS) CKBD1BWP30P140LVT
    I55 (net51 net50 VDD VSS) CKBD1BWP30P140LVT
    I54 (net50 net7 VDD VSS) CKBD1BWP30P140LVT
    I53 (net44 net47 VDD VSS) CKBD1BWP30P140LVT
    I52 (net41 net44 VDD VSS) CKBD1BWP30P140LVT
    I51 (n_89 net41 VDD VSS) CKBD1BWP30P140LVT
    I49 (net39 net40 VDD VSS) CKBD1BWP30P140LVT
    I48 (n_89 net39 VDD VSS) CKBD1BWP30P140LVT
    I47 (net29 net38 VDD VSS) CKBD1BWP30P140LVT
    I46 (net28 net29 VDD VSS) CKBD1BWP30P140LVT
    I45 (n_89 net28 VDD VSS) CKBD1BWP30P140LVT
    I86 (n_22 net20 VDD VSS) CKBD1BWP30P140LVT
    I74 (net40 net12 VDD VSS) CKBD1BWP30P140LVT
    I41 (net17 net22 VDD VSS) CKBD1BWP30P140LVT
    I40 (n_89 net17 VDD VSS) CKBD1BWP30P140LVT
    I82 (net4 net18 VDD VSS) CKBD1BWP30P140LVT
    I38 (n_89 net14 VDD VSS) CKBD1BWP30P140LVT
    I37 (net14 net11 VDD VSS) CKBD1BWP30P140LVT
    I36 (net11 net8 VDD VSS) CKBD1BWP30P140LVT
    drc_buf_sp2007 (STATE\<2\> n_143 VDD VSS) CKBD1BWP30P140LVT
    drc_buf_sp1980 (n_13 n_10 VDD VSS) CKBD1BWP30P140LVT
    drc_buf_sp1970 (n_43 n_102 VDD VSS) CKBD1BWP30P140LVT
    drc_buf_sp1989 (reg_Comparator_out n_123 VDD VSS) CKBD1BWP30P140LVT
    drc_buf_sp2025 (n_46 n_163 VDD VSS) CKBD1BWP30P140LVT
    g1867 (n_62 n_89 n_63 VDD VSS) NR2D0BWP30P140LVT
    g1886 (n_89 n_48 n_49 VDD VSS) NR2D0BWP30P140LVT
    g1866 (n_54 n_89 n_65 VDD VSS) NR2D0BWP30P140LVT
    g1895 (n_23 n_123 n_24 VDD VSS) NR2D0BWP30P140LVT
    g1879 (n_59 n_52 n_60 VDD VSS) NR2D0BWP30P140LVT
    g1857 (n_53 STATE\<3\> n_56 VDD VSS) NR2D0BWP30P140LVT
    g1875 (n_55 net23 n_86 VDD VSS) NR2D0BWP30P140LVT
    g1853 (n_57 n_10 n_61 VDD VSS) NR2D0BWP30P140LVT
    g1883 (n_44 n_6 n_54 VDD VSS) NR2D0BWP30P140LVT
    g1905 (n_18 n_36 n_39 VDD VSS) NR2D0BWP30P140LVT
    g1873 (n_53 n_52 n_70 VDD VSS) NR2D0BWP30P140LVT
    g1914 (STATE\<3\> n_26 n_30 VDD VSS) NR2D0BWP30P140LVT
    g1906 (n_102 n_123 n_29 VDD VSS) NR2D0BWP30P140LVT
    g1903 (n_27 n_26 n_48 VDD VSS) NR2D0BWP30P140LVT
    g1892 (n_163 n_102 n_67 VDD VSS) NR2D0BWP30P140LVT
    g1887 (n_39 n_27 n_40 VDD VSS) ND2D0BWP30P140LVT
    g1856 (n_57 n_163 n_58 VDD VSS) ND2D0BWP30P140LVT
    g1884 (n_46 n_42 n_68 VDD VSS) ND2D0BWP30P140LVT
    g1918 (STATE\<2\> n_9 VDD VSS) INVD1BWP30P140LVT
    g1925 (STATE\<1\> n_13 VDD VSS) INVD1BWP30P140LVT
    g1923 (n_10 n_5 VDD VSS) INVD1BWP30P140LVT
    g1934 (STATE\<0\> n_6 VDD VSS) INVD1BWP30P140LVT
    g1926 (STATE\<3\> n_52 VDD VSS) INVD1BWP30P140LVT
    g1927 (STATE\<0\> n_0 VDD VSS) INVD1BWP30P140LVT
    g1907 (n_15 n_23 VDD VSS) INVD1BWP30P140LVT
    g1932 (n_6 n_2 VDD VSS) INVD1BWP30P140LVT
    g1909 (n_36 n_17 VDD VSS) INVD1BWP30P140LVT
    g1917 (n_9 STATE\<1\> n_25 VDD VSS) NR2D1BWP30P140LVT
    g1915 (n_13 STATE\<3\> n_18 VDD VSS) NR2D1BWP30P140LVT
    g1912 (STATE\<3\> n_143 n_36 VDD VSS) NR2D1BWP30P140LVT
    g1900 (n_17 STATE\<1\> n_89 VDD VSS) NR2D1BWP30P140LVT
    reg_control_2_plus_reg (net7 n_41 control_2_plus VDD VSS) \
        LNQD1BWP30P140LVT
    reg_control_3_minus_reg (net9 n_31 control_3_minus VDD VSS) \
        LNQD1BWP30P140LVT
    reg_control_6_minus_reg (net59 n_63 control_6_minus VDD VSS) \
        LNQD1BWP30P140LVT
    reg_control_3_plus_reg (net65 n_49 control_3_plus VDD VSS) \
        LNQD1BWP30P140LVT
    reg_control_4_minus_reg (net3 n_64 control_4_minus VDD VSS) \
        LNQD1BWP30P140LVT
    reg_control_4_plus_reg (net8 n_65 control_4_plus VDD VSS) \
        LNQD1BWP30P140LVT
    reg_SAR_out_reg\[5\] (n_62 n_38 SAR_out\<5\> VDD VSS) \
        LNQD1BWP30P140LVT
    reg_SAR_out_reg\[1\] (n_70 n_60 SAR_out\<1\> VDD VSS) \
        LNQD1BWP30P140LVT
    reg_control_1_plus_reg (net108 n_74 control_1_plus VDD VSS) \
        LNQD1BWP30P140LVT
    reg_SAR_out_reg\[2\] (n_56 STATE\<3\> SAR_out\<2\> VDD VSS) \
        LNQD1BWP30P140LVT
    reg_SAR_out_reg\[4\] (n_86 n_39 SAR_out\<4\> VDD VSS) \
        LNQD1BWP30P140LVT
    g1902 (n_43 reg_Comparator_out n_16 VDD VSS) CKND2D0BWP30P140LVT
    g1880 (n_29 n_25 n_53 VDD VSS) CKND2D0BWP30P140LVT
    g1882 (n_29 n_36 n_57 VDD VSS) CKND2D0BWP30P140LVT
    g1878 (n_37 n_36 n_38 VDD VSS) INR2D0BWP30P140LVT
    g1881 (n_29 n_44 n_62 VDD VSS) INR2D0BWP30P140LVT
    g1818 (control_2_minus control_bar_2_minus VDD VSS) CKND0BWP30P140LVT
    g1929 (n_102 n_11 VDD VSS) CKND0BWP30P140LVT
    g1847 (control_2_plus control_bar_2_plus VDD VSS) CKND0BWP30P140LVT
    g1834 (control_3_minus control_bar_3_minus VDD VSS) CKND0BWP30P140LVT
    g1821 (control_6_minus control_bar_6_minus VDD VSS) CKND0BWP30P140LVT
    g1913 (n_27 n_19 VDD VSS) CKND0BWP30P140LVT
    g1849 (control_3_plus control_bar_3_plus VDD VSS) CKND0BWP30P140LVT
    g1837 (control_4_minus control_bar_4_minus VDD VSS) CKND0BWP30P140LVT
    g1836 (control_4_plus control_bar_4_plus VDD VSS) CKND0BWP30P140LVT
    g1817 (control_5_minus control_bar_5_minus VDD VSS) CKND0BWP30P140LVT
    g1823 (control_8_minus control_bar_8_minus VDD VSS) CKND0BWP30P140LVT
    g1850 (control_6_plus control_bar_6_plus VDD VSS) CKND0BWP30P140LVT
    g1824 (control_7_minus control_bar_7_minus VDD VSS) CKND0BWP30P140LVT
    g1835 (control_5_plus control_bar_5_plus VDD VSS) CKND0BWP30P140LVT
    g1822 (control_1_plus control_bar_1_plus VDD VSS) CKND0BWP30P140LVT
    g1848 (control_input control_bar_input VDD VSS) CKND0BWP30P140LVT
    g1851 (control_8_plus control_bar_8_plus VDD VSS) CKND0BWP30P140LVT
    g1852 (control_7_plus control_bar_7_plus VDD VSS) CKND0BWP30P140LVT
    g1931 (n_6 n_43 VDD VSS) CKND0BWP30P140LVT
    g1922 (n_10 n_26 VDD VSS) CKND0BWP30P140LVT
    g1908 (reg_Comparator_out n_34 VDD VSS) CKND0BWP30P140LVT
    g1872 (n_28 n_42 reset n_66 VDD VSS) AOI21D1BWP30P140LVT
    g1870 (n_20 n_50 reset n_51 VDD VSS) AOI21D1BWP30P140LVT
    g1874 (n_59 STATE\<3\> n_89 n_74 VDD VSS) AOI21D1BWP30P140LVT
    g1893 (n_20 n_59 VDD VSS) CKND1BWP30P140LVT
    g1901 (n_27 n_5 n_28 VDD VSS) ND2D1BWP30P140LVT
    g1897 (n_36 n_2 n_42 VDD VSS) ND2D1BWP30P140LVT
    g1904 (n_18 n_6 n_37 VDD VSS) ND2D1BWP30P140LVT
    g1899 (n_18 STATE\<2\> n_44 VDD VSS) ND2D1BWP30P140LVT
    g1916 (n_52 n_2 n_27 VDD VSS) CKND2D1BWP30P140LVT
    STATE_reg\[1\] (n_66 clk STATE\<1\> UNCONNECTED1 VDD VSS) \
        DFND1BWP30P140LVT
    STATE_reg\[2\] (n_72 clk STATE\<2\> UNCONNECTED0 VDD VSS) \
        DFND1BWP30P140LVT
    STATE_reg\[0\] (n_85 clk STATE\<0\> UNCONNECTED VDD VSS) \
        DFND1BWP30P140LVT
    STATE_reg\[3\] (n_51 clk STATE\<3\> UNCONNECTED2 VDD VSS) \
        DFND1BWP30P140LVT
    reg_Comparator_out_reg (Comparator_out clk reg_Comparator_out \
        UNCONNECTED3 VDD VSS) DFND1BWP30P140LVT
    g1898 (n_25 STATE\<3\> n_50 VDD VSS) IND2D1BWP30P140LVT
    g1896 (n_25 n_0 n_20 VDD VSS) ND2OPTIBD1BWP30P140LVT
    g1910 (n_0 n_52 n_15 VDD VSS) NR2OPTIBD1BWP30P140LVT
    reg_control_2_minus_reg (net1 n_71 control_2_minus VDD VSS) \
        LHQD1BWP30P140LVT
    reg_SAR_out_reg\[3\] (n_35 n_40 SAR_out\<3\> VDD VSS) \
        LHQD1BWP30P140LVT
    reg_control_5_minus_reg (net22 n_87 control_5_minus VDD VSS) \
        LHQD1BWP30P140LVT
    reg_control_8_minus_reg (n_32 n_68 control_8_minus VDD VSS) \
        LHQD1BWP30P140LVT
    reg_control_6_plus_reg (net38 n_47 control_6_plus VDD VSS) \
        LHQD1BWP30P140LVT
    reg_control_7_minus_reg (net12 n_58 control_7_minus VDD VSS) \
        LHQD1BWP30P140LVT
    reg_control_5_plus_reg (net47 n_45 control_5_plus VDD VSS) \
        LHQD1BWP30P140LVT
    reg_SAR_out_reg\[0\] (n_24 n_50 SAR_out\<0\> VDD VSS) \
        LHQD1BWP30P140LVT
    reg_control_input_reg (n_67 n_50 control_input VDD VSS) \
        LHQD1BWP30P140LVT
    reg_SAR_out_reg\[7\] (net21 n_68 SAR_out\<7\> VDD VSS) \
        LHQD1BWP30P140LVT
    reg_SAR_out_reg\[6\] (n_61 n_36 SAR_out\<6\> VDD VSS) \
        LHQD1BWP30P140LVT
    reg_control_8_plus_reg (n_67 n_89 control_8_plus VDD VSS) \
        LHQD1BWP30P140LVT
    reg_control_7_plus_reg (n_89 n_68 control_7_plus VDD VSS) \
        LHQD1BWP30P140LVT
    g1871 (n_42 n_10 reg_Comparator_out n_22 VDD VSS) NR3D0BWP30P140LVT
    g1891 (n_17 n_43 n_46 n_47 VDD VSS) OAI21D0BWP30P140LVT
    g1869 (n_44 n_102 n_46 n_45 VDD VSS) OAI21D0BWP30P140LVT
    g1838 (n_37 n_33 reset n_72 VDD VSS) AOI21D0P7BWP30P140LVT
    g1885 (n_30 n_11 n_89 n_41 VDD VSS) AOI21D0P7BWP30P140LVT
    g1868 (n_29 n_30 n_89 n_31 VDD VSS) AOI21D0P7BWP30P140LVT
    g1864 (n_48 net19 n_89 n_64 VDD VSS) AOI21D0P7BWP30P140LVT
    g1865 (net13 n_26 STATE\<2\> n_32 VDD VSS) AOI21D0P7BWP30P140LVT
    g1841 (n_70 n_89 n_71 VDD VSS) OR2D0BWP30P140LVT
    g1840 (n_86 n_89 n_87 VDD VSS) OR2D0BWP30P140LVT
    g1890 (n_19 n_25 n_34 n_35 VDD VSS) AN3D1BWP30P140LVT
    g1815 (n_74 n_44 n_21 reset n_85 VDD VSS) AOI31D1BWP30P140LVT
    g1889 (n_13 n_9 STATE\<0\> n_15 n_5 n_21 VDD VSS) AOI32D1BWP30P140LVT
    g1888 (n_23 STATE\<1\> n_143 n_33 VDD VSS) OAI21D1BWP30P140LVT
ends Control_logic
// End of subcircuit definition.

// Library name: And_Sram
// Cell name: SAR_adc_innovation
// View name: schematic
subckt SAR_adc_innovation OUTPUT\<7\> OUTPUT\<6\> OUTPUT\<5\> OUTPUT\<4\> \
        OUTPUT\<3\> OUTPUT\<2\> OUTPUT\<1\> OUTPUT\<0\> VDD VSS Vref clk \
        reset vin vin_plus_source
    I19 (control_bar_1_plus control_1_plus 0 C_1_TOP) switch mul_switch=10
    I18 (control_1_plus control_bar_1_plus Vref C_1_TOP) switch \
        mul_switch=10
    I17 (control_input control_bar_input vin_plus_source vin_plus) switch \
        mul_switch=10
    I14 (control_bar_2_plus control_2_plus 0 C_2_TOP) switch mul_switch=10
    I13 (control_2_plus control_bar_2_plus Vref C_2_TOP) switch \
        mul_switch=10
    I12 (control_bar_3_plus control_3_plus 0 C_4_TOP) switch mul_switch=10